CM array 
CE
SY d=0.5
GW	1	11	-1	0	-0.25	-1	0	0.25	#20
GW	2	11	-0.5	0	-0.25	-0.5	0	0.25	#20
GW	3	11	0	0	-0.25	0	0	0.25	#20
GW	4	11	0.5	0	-0.25	0.5	0	0.25	#20
GW	5	11	1	0	-0.25	1	0	0.25	#20
GW	6	11	1.5	0	-0.25	1.5	0	0.25	#20
GW	7	11	-1.5	0	-0.25	-1.5	0	0.25	#20
GE	0
GN	-1
EK
EX	6	1	6	0	1	0	0
EX	6	2	6	0	1	0	0
EX	6	3	6	0	1	0	0
EX	6	4	6	0	1	0	0
EX	6	5	6	0	1	0	0
EX	6	6	6	0	1	0	0
EX	6	7	6	0	1	0	0

FR	0	0	0	0	300	0
EN
